<configuration>
    <input>
        <net-file value="osm.net.xml"/>
        <route-files value="osm.rou.xml"/>
    </input>

    <time>
        <begin value="0"/>
        <end value="2000"/>
    </time>

    <gui_only>
        <gui-settings-file value="gui-settings.xml"/>
    </gui_only>
</configuration>