<?xml version="1.0" encoding="UTF-8"?>

<!-- generated on 2026-02-25T23:09:56.182775+05:30 by Eclipse SUMO netconvert 1.26.0
<netconvertConfiguration xmlns:xsi="http://www.w3.org/2001/XMLSchema-instance" xsi:noNamespaceSchemaLocation="http://sumo.dlr.de/xsd/netconvertConfiguration.xsd">

    <input>
        <osm-files value="map.osm"/>
    </input>

    <output>
        <output-file value="osm.net.xml"/>
    </output>

    <projection>
        <proj.utm value="true"/>
    </projection>

    <tls_building>
        <tls.guess value="true"/>
        <tls.default-type value="actuated"/>
    </tls_building>

    <junctions>
        <junctions.join value="true"/>
    </junctions>

</netconvertConfiguration>
-->

<net version="1.20" junctionCornerDetail="5" limitTurnSpeed="5.50" xmlns:xsi="http://www.w3.org/2001/XMLSchema-instance" xsi:noNamespaceSchemaLocation="http://sumo.dlr.de/xsd/net_file.xsd">

    <location netOffset="-717242.75,-3168234.38" convBoundary="0.00,0.00,930.68,935.10" origBoundary="77.222269,28.622919,77.231682,28.631405" projParameter="+proj=utm +zone=43 +ellps=WGS84 +datum=WGS84 +units=m +no_defs"/>

    <type id="highway.footway" priority="1" numLanes="1" speed="2.78" allow="pedestrian" oneway="1" width="2.00"/>
    <type id="highway.residential" priority="3" numLanes="1" speed="13.89" disallow="tram rail_urban rail rail_electric rail_fast ship container cable_car subway aircraft wheelchair scooter drone" oneway="0"/>
    <type id="highway.secondary" priority="11" numLanes="1" speed="27.78" disallow="tram rail_urban rail rail_electric rail_fast ship container cable_car subway aircraft wheelchair scooter drone" oneway="0"/>
    <type id="highway.secondary_link" priority="6" numLanes="1" speed="22.22" disallow="tram rail_urban rail rail_electric rail_fast ship container cable_car subway aircraft wheelchair scooter drone" oneway="0"/>
    <type id="highway.service" priority="1" numLanes="1" speed="5.56" allow="pedestrian delivery bicycle" oneway="0"/>

    <edge id=":10254888220_0" function="internal">
        <lane id=":10254888220_0_0" index="0" allow="pedestrian delivery bicycle" speed="3.65" length="4.67" shape="490.32,575.47 491.77,575.52 492.53,575.98 492.61,576.87 492.02,578.19"/>
    </edge>
    <edge id=":10254888224_0" function="internal">
        <lane id=":10254888224_0_0" index="0" allow="pedestrian delivery bicycle" speed="3.65" length="4.67" shape="376.41,577.80 376.42,576.35 376.87,575.58 377.76,575.48 379.09,576.04"/>
    </edge>
    <edge id=":10254888534_0" function="internal">
        <lane id=":10254888534_0_0" index="0" allow="pedestrian delivery bicycle" speed="3.65" length="4.67" shape="338.13,589.25 338.11,587.81 338.54,587.02 339.42,586.90 340.77,587.43"/>
    </edge>
    <edge id=":10254888539_0" function="internal">
        <lane id=":10254888539_0_0" index="0" allow="pedestrian delivery bicycle" speed="3.65" length="4.67" shape="341.72,675.14 340.27,675.14 339.50,674.70 339.39,673.81 339.94,672.48"/>
    </edge>
    <edge id=":10254888542_0" function="internal">
        <lane id=":10254888542_0_0" index="0" allow="pedestrian delivery bicycle" speed="5.56" length="0.30" shape="374.02,642.13 373.98,642.05 373.96,641.99 373.93,641.94 373.88,641.87"/>
    </edge>
    <edge id=":10254888542_1" function="internal">
        <lane id=":10254888542_1_0" index="0" allow="pedestrian delivery bicycle" speed="5.56" length="0.89" shape="376.53,640.08 376.68,640.30 376.77,640.45 376.85,640.62 376.96,640.86"/>
    </edge>
    <edge id=":11027125477_0" function="internal">
        <lane id=":11027125477_0_0" index="0" allow="pedestrian delivery bicycle" speed="3.65" length="4.67" shape="292.15,620.19 292.12,618.75 292.54,617.96 293.43,617.83 294.77,618.35"/>
    </edge>
    <edge id=":11187714088_0" function="internal">
        <lane id=":11187714088_0_0" index="0" disallow="tram rail_urban rail rail_electric rail_fast ship container cable_car subway aircraft wheelchair scooter drone" speed="27.78" length="5.19" shape="401.52,674.58 405.70,671.50"/>
    </edge>
    <edge id=":12044574565_0" function="internal">
        <lane id=":12044574565_0_0" index="0" disallow="tram rail_urban rail rail_electric rail_fast ship container cable_car subway aircraft wheelchair scooter drone" speed="27.78" length="5.06" shape="401.26,664.72 397.05,667.53"/>
    </edge>
    <edge id=":12044622894_0" function="internal">
        <lane id=":12044622894_0_0" index="0" allow="pedestrian delivery bicycle" speed="3.65" length="4.67" shape="368.69,669.78 370.13,669.78 370.91,670.22 371.02,671.10 370.47,672.44"/>
    </edge>
    <edge id=":5434483914_0" function="internal">
        <lane id=":5434483914_0_0" index="0" disallow="tram rail_urban rail rail_electric rail_fast ship container cable_car subway aircraft wheelchair scooter drone" speed="27.78" length="10.69" shape="389.54,672.34 380.54,678.12"/>
    </edge>
    <edge id=":5434483914_1" function="internal">
        <lane id=":5434483914_1_0" index="0" disallow="tram rail_urban rail rail_electric rail_fast ship container cable_car subway aircraft wheelchair scooter drone" speed="19.16" length="10.72" shape="386.88,669.68 385.34,672.39 384.27,674.46 382.92,676.25 380.54,678.12"/>
    </edge>
    <edge id=":5434483918_0" function="internal">
        <lane id=":5434483918_0_0" index="0" disallow="tram rail_urban rail rail_electric rail_fast ship container cable_car subway aircraft wheelchair scooter drone" speed="27.78" length="12.52" shape="387.34,627.17 394.75,637.27"/>
    </edge>
    <edge id=":5434483918_1" function="internal">
        <lane id=":5434483918_1_0" index="0" disallow="tram rail_urban rail rail_electric rail_fast ship container cable_car subway aircraft wheelchair scooter drone" speed="25.00" length="12.53" shape="387.34,627.17 389.00,630.05 389.95,632.78 390.63,635.63 391.48,638.91"/>
    </edge>
    <edge id=":5434484022_0" function="internal">
        <lane id=":5434484022_0_0" index="0" disallow="tram rail_urban rail rail_electric rail_fast ship container cable_car subway aircraft wheelchair scooter drone" speed="27.78" length="8.19" shape="402.32,632.28 400.70,630.51 399.30,629.55 397.90,628.60 396.31,626.80"/>
    </edge>
    <edge id=":5434484022_1" function="internal">
        <lane id=":5434484022_1_0" index="0" disallow="tram rail_urban rail rail_electric rail_fast ship container cable_car subway aircraft wheelchair scooter drone" speed="13.77" length="7.67" shape="404.92,629.49 402.87,628.50 401.47,627.74 400.30,626.72 398.92,624.95"/>
    </edge>
    <edge id=":5434484025_0" function="internal">
        <lane id=":5434484025_0_0" index="0" disallow="tram rail_urban rail rail_electric rail_fast ship container cable_car subway aircraft wheelchair scooter drone" speed="27.78" length="9.76" shape="448.65,638.46 446.20,640.00 444.46,640.96 442.68,641.84 440.10,643.15"/>
    </edge>
    <edge id=":5434484025_1" function="internal">
        <lane id=":5434484025_1_0" index="0" disallow="tram rail_urban rail rail_electric rail_fast ship container cable_car subway aircraft wheelchair scooter drone" speed="12.62" length="9.43" shape="448.65,638.46 446.25,639.68 444.38,639.91 442.36,639.65 439.55,639.42"/>
    </edge>
    <edge id=":5434484026_0" function="internal">
        <lane id=":5434484026_0_0" index="0" disallow="tram rail_urban rail rail_electric rail_fast ship container cable_car subway aircraft wheelchair scooter drone" speed="27.78" length="0.10" shape="407.87,655.06 407.87,655.06"/>
    </edge>
    <edge id=":5792664558_0" function="internal">
        <lane id=":5792664558_0_0" index="0" disallow="tram rail_urban rail rail_electric rail_fast ship container cable_car subway aircraft wheelchair scooter drone" speed="27.78" length="0.10" shape="422.81,652.48 422.81,652.48"/>
    </edge>
    <edge id=":5792664560_0" function="internal">
        <lane id=":5792664560_0_0" index="0" disallow="tram rail_urban rail rail_electric rail_fast ship container cable_car subway aircraft wheelchair scooter drone" speed="27.78" length="9.51" shape="438.80,651.31 446.86,646.25"/>
    </edge>
    <edge id=":5792664560_1" function="internal">
        <lane id=":5792664560_1_0" index="0" disallow="tram rail_urban rail rail_electric rail_fast ship container cable_car subway aircraft wheelchair scooter drone" speed="13.78" length="9.53" shape="441.63,653.93 442.81,651.33 443.57,649.45 444.67,647.88 446.86,646.25"/>
    </edge>
    <edge id=":5792664570_0" function="internal">
        <lane id=":5792664570_0_0" index="0" disallow="tram rail_urban rail rail_electric rail_fast ship container cable_car subway aircraft wheelchair scooter drone" speed="27.78" length="7.52" shape="374.69,692.94 380.95,688.78"/>
    </edge>
    <edge id=":5792664570_1" function="internal">
        <lane id=":5792664570_1_0" index="0" disallow="tram rail_urban rail rail_electric rail_fast ship container cable_car subway aircraft wheelchair scooter drone" speed="9.24" length="7.39" shape="374.69,692.94 376.58,692.06 378.06,691.96 379.62,692.35 381.76,692.92"/>
    </edge>
    <edge id=":5792664573_0" function="internal">
        <lane id=":5792664573_0_0" index="0" disallow="tram rail_urban rail rail_electric rail_fast ship container cable_car subway aircraft wheelchair scooter drone" speed="22.22" length="5.39" shape="422.90,636.72 421.35,636.33 420.30,636.03 419.26,635.69 417.76,635.14"/>
    </edge>
    <edge id=":5792664575_0" function="internal">
        <lane id=":5792664575_0_0" index="0" disallow="tram rail_urban rail rail_electric rail_fast ship container cable_car subway aircraft wheelchair scooter drone" speed="22.22" length="5.28" shape="393.85,652.52 393.77,654.08 393.67,655.15 393.48,656.21 393.14,657.74"/>
    </edge>
    <edge id=":5792664577_0" function="internal">
        <lane id=":5792664577_0_0" index="0" disallow="tram rail_urban rail rail_electric rail_fast ship container cable_car subway aircraft wheelchair scooter drone" speed="27.78" length="0.10" shape="407.28,670.26 407.28,670.26"/>
    </edge>
    <edge id=":6234226367_0" function="internal">
        <lane id=":6234226367_0_0" index="0" disallow="tram rail_urban rail rail_electric rail_fast ship container cable_car subway aircraft wheelchair scooter drone" speed="27.78" length="5.26" shape="413.66,648.05 410.66,643.73"/>
    </edge>
    <edge id=":6234228016_0" function="internal">
        <lane id=":6234228016_0_0" index="0" disallow="tram rail_urban rail rail_electric rail_fast ship container cable_car subway aircraft wheelchair scooter drone" speed="27.78" length="5.05" shape="425.13,685.03 427.72,689.36"/>
    </edge>
    <edge id=":6234228017_0" function="internal">
        <lane id=":6234228017_0_0" index="0" disallow="tram rail_urban rail rail_electric rail_fast ship container cable_car subway aircraft wheelchair scooter drone" speed="27.78" length="5.10" shape="403.38,648.95 406.40,653.06"/>
    </edge>
    <edge id=":6234228018_0" function="internal">
        <lane id=":6234228018_0_0" index="0" disallow="tram rail_urban rail rail_electric rail_fast ship container cable_car subway aircraft wheelchair scooter drone" speed="27.78" length="5.46" shape="428.94,648.99 424.18,651.66"/>
    </edge>
    <edge id=":6234228019_0" function="internal">
        <lane id=":6234228019_0_0" index="0" disallow="tram rail_urban rail rail_electric rail_fast ship container cable_car subway aircraft wheelchair scooter drone" speed="27.78" length="5.16" shape="428.31,657.74 432.76,655.14"/>
    </edge>
    <edge id=":6234228020_0" function="internal">
        <lane id=":6234228020_0_0" index="0" disallow="tram rail_urban rail rail_electric rail_fast ship container cable_car subway aircraft wheelchair scooter drone" speed="22.22" length="0.10" shape="415.31,700.37 415.31,700.37"/>
    </edge>
    <edge id=":6234228026_0" function="internal">
        <lane id=":6234228026_0_0" index="0" disallow="tram rail_urban rail rail_electric rail_fast ship container cable_car subway aircraft wheelchair scooter drone" speed="22.22" length="0.40" shape="436.78,672.41 436.76,672.29 436.76,672.21 436.76,672.13 436.77,672.01"/>
    </edge>
    <edge id=":6234228027_0" function="internal">
        <lane id=":6234228027_0_0" index="0" disallow="tram rail_urban rail rail_electric rail_fast ship container cable_car subway aircraft wheelchair scooter drone" speed="22.22" length="8.68" shape="437.02,669.28 437.30,666.72 437.61,664.99 438.04,663.27 438.67,660.77"/>
    </edge>
    <edge id=":6234228027_1" function="internal">
        <lane id=":6234228027_1_0" index="0" disallow="tram rail_urban rail rail_electric rail_fast ship container cable_car subway aircraft wheelchair scooter drone" speed="8.56" length="8.15" shape="437.02,669.28 437.44,667.88 438.46,666.43 440.07,664.92 442.28,663.36"/>
    </edge>
    <edge id=":6234228029_0" function="internal">
        <lane id=":6234228029_0_0" index="0" disallow="tram rail_urban rail rail_electric rail_fast ship container cable_car subway aircraft wheelchair scooter drone" speed="27.78" length="0.30" shape="429.31,673.95 429.15,673.69"/>
    </edge>
    <edge id=":6761961053_0" function="internal">
        <lane id=":6761961053_0_0" index="0" disallow="tram rail_urban rail rail_electric rail_fast ship container cable_car subway aircraft wheelchair scooter drone" speed="22.22" length="7.81" shape="439.35,639.41 437.03,639.34 435.45,639.20 433.88,638.96 431.59,638.61"/>
    </edge>
    <edge id=":6761961053_1" function="internal">
        <lane id=":6761961053_1_0" index="0" disallow="tram rail_urban rail rail_electric rail_fast ship container cable_car subway aircraft wheelchair scooter drone" speed="9.97" length="8.07" shape="438.72,635.62 436.78,637.06 435.38,638.12 433.86,638.68 431.59,638.61"/>
    </edge>
    <edge id=":cluster_12145877138_12145877139_12145877142_12145877145_0" function="internal">
        <lane id=":cluster_12145877138_12145877139_12145877142_12145877145_0_0" index="0" disallow="tram rail_urban rail rail_electric rail_fast ship container cable_car subway aircraft wheelchair scooter drone" speed="7.71" length="13.56" shape="421.48,661.37 419.04,658.42 416.31,656.98 413.31,657.07 410.03,658.67"/>
    </edge>
    <edge id=":cluster_12145877138_12145877139_12145877142_12145877145_1" function="internal">
        <lane id=":cluster_12145877138_12145877139_12145877142_12145877145_1_0" index="0" disallow="tram rail_urban rail rail_electric rail_fast ship container cable_car subway aircraft wheelchair scooter drone" speed="27.78" length="7.57" shape="421.48,661.37 418.00,654.64"/>
    </edge>
    <edge id=":cluster_12145877138_12145877139_12145877142_12145877145_2" function="internal">
        <lane id=":cluster_12145877138_12145877139_12145877142_12145877145_2_0" index="0" disallow="tram rail_urban rail rail_electric rail_fast ship container cable_car subway aircraft wheelchair scooter drone" speed="27.78" length="0.10" shape="421.48,661.37 421.51,661.41"/>
    </edge>
    <edge id=":cluster_12145877138_12145877139_12145877142_12145877145_3" function="internal">
        <lane id=":cluster_12145877138_12145877139_12145877142_12145877145_3_0" index="0" disallow="tram rail_urban rail rail_electric rail_fast ship container cable_car subway aircraft wheelchair scooter drone" speed="5.49" length="6.71" shape="421.48,661.37 421.31,665.51 419.95,667.68"/>
    </edge>
    <edge id=":cluster_12145877138_12145877139_12145877142_12145877145_16" function="internal">
        <lane id=":cluster_12145877138_12145877139_12145877142_12145877145_16_0" index="0" disallow="tram rail_urban rail rail_electric rail_fast ship container cable_car subway aircraft wheelchair scooter drone" speed="5.49" length="6.71" shape="419.95,667.68 417.39,667.90 413.63,666.15"/>
    </edge>
    <edge id=":cluster_12145877138_12145877139_12145877142_12145877145_4" function="internal">
        <lane id=":cluster_12145877138_12145877139_12145877142_12145877145_4_0" index="0" disallow="tram rail_urban rail rail_electric rail_fast ship container cable_car subway aircraft wheelchair scooter drone" speed="7.71" length="14.36" shape="417.89,654.69 414.31,656.89 412.41,659.54 412.18,662.62 413.63,666.15"/>
    </edge>
    <edge id=":cluster_12145877138_12145877139_12145877142_12145877145_5" function="internal">
        <lane id=":cluster_12145877138_12145877139_12145877142_12145877145_5_0" index="0" disallow="tram rail_urban rail rail_electric rail_fast ship container cable_car subway aircraft wheelchair scooter drone" speed="27.78" length="8.83" shape="417.89,654.69 415.48,655.72 413.81,656.42 412.22,657.25 410.03,658.67"/>
    </edge>
    <edge id=":cluster_12145877138_12145877139_12145877142_12145877145_6" function="internal">
        <lane id=":cluster_12145877138_12145877139_12145877142_12145877145_6_0" index="0" disallow="tram rail_urban rail rail_electric rail_fast ship container cable_car subway aircraft wheelchair scooter drone" speed="27.78" length="0.15" shape="417.89,654.69 417.89,654.70 417.94,654.69 417.99,654.67 418.00,654.64"/>
    </edge>
    <edge id=":cluster_12145877138_12145877139_12145877142_12145877145_7" function="internal">
        <lane id=":cluster_12145877138_12145877139_12145877142_12145877145_7_0" index="0" disallow="tram rail_urban rail rail_electric rail_fast ship container cable_car subway aircraft wheelchair scooter drone" speed="5.12" length="11.15" shape="417.89,654.69 421.31,655.01 423.06,656.24 423.12,658.37 421.51,661.41"/>
    </edge>
    <edge id=":cluster_12145877138_12145877139_12145877142_12145877145_8" function="internal">
        <lane id=":cluster_12145877138_12145877139_12145877142_12145877145_8_0" index="0" disallow="tram rail_urban rail rail_electric rail_fast ship container cable_car subway aircraft wheelchair scooter drone" speed="7.67" length="12.52" shape="410.55,659.54 412.56,661.86 415.05,662.95 418.03,662.80 421.51,661.41"/>
    </edge>
    <edge id=":cluster_12145877138_12145877139_12145877142_12145877145_9" function="internal">
        <lane id=":cluster_12145877138_12145877139_12145877142_12145877145_9_0" index="0" disallow="tram rail_urban rail rail_electric rail_fast ship container cable_car subway aircraft wheelchair scooter drone" speed="27.78" length="7.31" shape="410.55,659.54 411.55,661.46 412.08,662.85 412.61,664.24 413.63,666.15"/>
    </edge>
    <edge id=":cluster_12145877138_12145877139_12145877142_12145877145_10" function="internal">
        <lane id=":cluster_12145877138_12145877139_12145877142_12145877145_10_0" index="0" disallow="tram rail_urban rail rail_electric rail_fast ship container cable_car subway aircraft wheelchair scooter drone" speed="3.16" length="1.26" shape="410.55,659.54 410.64,659.55 410.54,659.16 410.32,658.75 410.03,658.67"/>
    </edge>
    <edge id=":cluster_12145877138_12145877139_12145877142_12145877145_11" function="internal">
        <lane id=":cluster_12145877138_12145877139_12145877142_12145877145_11_0" index="0" disallow="tram rail_urban rail rail_electric rail_fast ship container cable_car subway aircraft wheelchair scooter drone" speed="5.44" length="6.51" shape="410.55,659.54 410.58,655.52 411.83,653.37"/>
    </edge>
    <edge id=":cluster_12145877138_12145877139_12145877142_12145877145_17" function="internal">
        <lane id=":cluster_12145877138_12145877139_12145877142_12145877145_17_0" index="0" disallow="tram rail_urban rail rail_electric rail_fast ship container cable_car subway aircraft wheelchair scooter drone" speed="5.44" length="6.51" shape="411.83,653.37 414.30,653.07 418.00,654.64"/>
    </edge>
    <edge id=":cluster_12145877138_12145877139_12145877142_12145877145_12" function="internal">
        <lane id=":cluster_12145877138_12145877139_12145877142_12145877145_12_0" index="0" disallow="tram rail_urban rail rail_electric rail_fast ship container cable_car subway aircraft wheelchair scooter drone" speed="7.63" length="12.88" shape="414.71,665.45 417.65,663.00 419.18,660.39 419.30,657.60 418.00,654.64"/>
    </edge>
    <edge id=":cluster_12145877138_12145877139_12145877142_12145877145_13" function="internal">
        <lane id=":cluster_12145877138_12145877139_12145877142_12145877145_13_0" index="0" disallow="tram rail_urban rail rail_electric rail_fast ship container cable_car subway aircraft wheelchair scooter drone" speed="27.78" length="7.91" shape="414.71,665.45 421.51,661.41"/>
    </edge>
    <edge id=":cluster_12145877138_12145877139_12145877142_12145877145_14" function="internal">
        <lane id=":cluster_12145877138_12145877139_12145877142_12145877145_14_0" index="0" disallow="tram rail_urban rail rail_electric rail_fast ship container cable_car subway aircraft wheelchair scooter drone" speed="3.32" length="1.61" shape="414.71,665.45 414.72,665.34 414.25,665.46 413.73,665.76 413.63,666.15"/>
    </edge>
    <edge id=":cluster_12145877138_12145877139_12145877142_12145877145_15" function="internal">
        <lane id=":cluster_12145877138_12145877139_12145877142_12145877145_15_0" index="0" disallow="tram rail_urban rail rail_electric rail_fast ship container cable_car subway aircraft wheelchair scooter drone" speed="5.26" length="12.03" shape="414.71,665.45 411.00,665.51 408.98,664.40 408.66,662.12 410.03,658.67"/>
    </edge>
    <edge id=":cluster_6234228015_6234228030_0" function="internal">
        <lane id=":cluster_6234228015_6234228030_0_0" index="0" disallow="tram rail_urban rail rail_electric rail_fast ship container cable_car subway aircraft wheelchair scooter drone" speed="27.78" length="14.24" shape="440.74,692.24 433.22,680.15"/>
    </edge>
    <edge id=":cluster_6234228015_6234228030_1" function="internal">
        <lane id=":cluster_6234228015_6234228030_1_0" index="0" disallow="tram rail_urban rail rail_electric rail_fast ship container cable_car subway aircraft wheelchair scooter drone" speed="19.52" length="11.52" shape="440.74,692.24 439.28,689.45 438.72,686.99 438.53,684.39 438.18,681.16"/>
    </edge>

    <edge id="-1121142417" from="10254888224" to="10254888220" priority="1" type="highway.service" shape="377.75,576.92 394.55,602.55 407.58,618.09 411.84,621.10 419.56,621.41 491.17,576.83">
        <lane id="-1121142417_0" index="0" allow="pedestrian delivery bicycle" speed="5.56" length="145.69" shape="379.09,576.04 395.84,601.59 408.67,616.90 412.38,619.52 419.13,619.79 490.32,575.47"/>
    </edge>
    <edge id="-1121143467" from="10254888542" to="10254888539" priority="1" type="highway.service" shape="375.37,641.22 377.72,646.65 376.96,649.77 340.83,673.81">
        <lane id="-1121143467_0" index="0" allow="pedestrian delivery bicycle" speed="5.56" length="54.55" shape="376.96,640.86 379.40,646.51 378.37,650.76 341.72,675.14"/>
    </edge>
    <edge id="-1290403910" from="10254888534" to="10254888542" priority="1" type="highway.service" shape="339.45,588.34 341.59,591.43 361.10,620.05 375.37,641.22">
        <lane id="-1290403910_0" index="0" allow="pedestrian delivery bicycle" speed="5.56" length="63.65" shape="340.77,587.43 342.91,590.52 362.42,619.15 376.53,640.08"/>
    </edge>
    <edge id="-717528806" from="11027125477" to="12044622894" priority="1" type="highway.service" shape="293.46,619.27 329.57,670.80 334.85,679.28 341.85,689.81 369.58,671.11">
        <lane id="-717528806_0" index="0" allow="pedestrian delivery bicycle" speed="5.56" length="115.82" shape="294.77,618.35 330.91,669.92 336.20,678.41 342.29,687.58 368.69,669.78"/>
    </edge>
    <edge id="1121142417" from="10254888220" to="10254888224" priority="1" type="highway.service" shape="491.17,576.83 419.56,621.41 411.84,621.10 407.58,618.09 394.55,602.55 377.75,576.92">
        <lane id="1121142417_0" index="0" allow="pedestrian delivery bicycle" speed="5.56" length="150.75" shape="492.02,578.19 419.99,623.03 411.30,622.68 406.49,619.28 393.26,603.51 376.41,577.80"/>
    </edge>
    <edge id="1121143467" from="10254888539" to="10254888542" priority="1" type="highway.service" shape="340.83,673.81 376.96,649.77 377.72,646.65 375.37,641.22">
        <lane id="1121143467_0" index="0" allow="pedestrian delivery bicycle" speed="5.56" length="49.91" shape="339.94,672.48 375.55,648.78 376.04,646.79 374.02,642.13"/>
    </edge>
    <edge id="1121186672#0" from="13424547852" to="9195240829" priority="1" type="highway.footway" spreadType="center">
        <lane id="1121186672#0_0" index="0" allow="pedestrian" speed="2.78" length="10.73" width="2.00" shape="434.93,633.42 424.36,631.57"/>
    </edge>
    <edge id="1121186672#1" from="9195240829" to="10255311449" priority="1" type="highway.footway" spreadType="center" shape="422.05,631.17 396.42,615.22 389.31,606.50 355.94,562.66 352.57,558.56 324.55,527.28 318.93,521.62 295.06,498.17 284.49,488.12 264.48,471.37 200.48,419.88 161.19,395.76 151.38,380.68 146.81,365.76 147.81,352.14 152.28,343.64 171.21,307.87 178.42,294.25 194.93,263.09 202.94,247.95 210.41,233.83 224.51,207.14 254.95,149.58 269.06,122.91 272.15,116.91 282.54,98.40 295.03,74.27 314.43,37.93 334.67,0.00">
        <lane id="1121186672#1_0" index="0" allow="pedestrian" speed="2.78" length="797.80" width="2.00" shape="420.09,629.95 396.42,615.22 389.31,606.50 355.94,562.66 352.57,558.56 324.55,527.28 318.93,521.62 295.06,498.17 284.49,488.12 264.48,471.37 200.48,419.88 161.19,395.76 151.38,380.68 146.81,365.76 147.81,352.14 152.28,343.64 171.21,307.87 178.42,294.25 194.93,263.09 202.94,247.95 210.41,233.83 224.51,207.14 254.95,149.58 269.06,122.91 272.15,116.91 282.54,98.40 295.03,74.27 314.43,37.93 334.67,-0.00"/>
    </edge>
    <edge id="1290403893#0" from="13424549803" to="9195240832" priority="1" type="highway.footway" spreadType="center" shape="90.27,456.99 105.29,426.89 114.78,419.03 140.48,415.84 151.68,420.52 197.30,448.36 205.23,452.89 248.67,489.05 274.06,509.98 284.12,518.98 298.99,532.98 306.71,541.60 316.80,552.53 321.19,557.16 333.83,571.54 336.96,575.18 346.98,587.84 366.41,616.55 384.62,641.70 385.73,646.39 385.49,651.79 385.09,653.86">
        <lane id="1290403893#0_0" index="0" allow="pedestrian" speed="2.78" length="418.35" width="2.00" shape="90.27,456.99 105.29,426.89 114.78,419.03 140.48,415.84 151.68,420.52 197.30,448.36 205.23,452.89 248.67,489.05 274.06,509.98 284.12,518.98 298.99,532.98 306.71,541.60 316.80,552.53 321.19,557.16 333.83,571.54 336.96,575.18 346.98,587.84 366.41,616.55 384.62,641.70 385.73,646.39 385.51,651.36"/>
    </edge>
    <edge id="1290403893#1" from="9195240832" to="12044622901" priority="1" type="highway.footway" spreadType="center" shape="385.09,653.86 384.39,657.53 381.04,665.71 376.88,673.46 373.84,676.01 353.58,688.78 349.68,691.24 345.08,694.26 342.21,696.12 335.08,700.49 322.26,702.91 295.69,719.09 288.86,729.27 179.81,798.26">
        <lane id="1290403893#1_0" index="0" allow="pedestrian" speed="2.78" length="254.17" width="2.00" shape="384.63,656.28 384.39,657.53 381.04,665.71 376.88,673.46 373.84,676.01 353.58,688.78 349.68,691.24 345.08,694.26 342.21,696.12 335.08,700.49 322.26,702.91 295.69,719.09 288.86,729.27 179.81,798.26"/>
    </edge>
    <edge id="1290403910" from="10254888542" to="10254888534" priority="1" type="highway.service" shape="375.37,641.22 361.10,620.05 341.59,591.43 339.45,588.34">
        <lane id="1290403910_0" index="0" allow="pedestrian delivery bicycle" speed="5.56" length="63.61" shape="373.88,641.87 359.78,620.95 340.27,592.33 338.13,589.25"/>
    </edge>
    <edge id="1312753970#0" from="6234228031" to="cluster_6234228015_6234228030" priority="11" type="highway.secondary" spreadType="center" shape="457.65,717.56 439.71,690.70">
        <lane id="1312753970#0_0" index="0" disallow="tram rail_urban rail rail_electric rail_fast ship container cable_car subway aircraft wheelchair scooter drone" speed="27.78" length="30.45" shape="457.65,717.56 440.74,692.24"/>
    </edge>
    <edge id="1312753970#2" from="cluster_6234228015_6234228030" to="6234228029" priority="11" type="highway.secondary" spreadType="center" shape="434.56,682.28 429.23,673.82">
        <lane id="1312753970#2_0" index="0" disallow="tram rail_urban rail rail_electric rail_fast ship container cable_car subway aircraft wheelchair scooter drone" speed="27.78" length="7.33" shape="433.22,680.15 429.31,673.95"/>
    </edge>
    <edge id="1312753970#3" from="6234228029" to="cluster_12145877138_12145877139_12145877142_12145877145" priority="11" type="highway.secondary" spreadType="center" shape="429.23,673.82 421.51,661.41">
        <lane id="1312753970#3_0" index="0" disallow="tram rail_urban rail rail_electric rail_fast ship container cable_car subway aircraft wheelchair scooter drone" speed="27.78" length="14.52" shape="429.15,673.69 421.48,661.37"/>
    </edge>
    <edge id="1312753971#0" from="cluster_12145877138_12145877139_12145877142_12145877145" to="6234228016" priority="11" type="highway.secondary" spreadType="center" shape="413.63,666.15 426.47,687.23">
        <lane id="1312753971#0_0" index="0" disallow="tram rail_urban rail rail_electric rail_fast ship container cable_car subway aircraft wheelchair scooter drone" speed="27.78" length="22.10" shape="413.63,666.15 425.13,685.03"/>
    </edge>
    <edge id="1312753971#1" from="6234228016" to="2946891535" priority="11" type="highway.secondary" spreadType="center">
        <lane id="1312753971#1_0" index="0" disallow="tram rail_urban rail rail_electric rail_fast ship container cable_car subway aircraft wheelchair scooter drone" speed="27.78" length="31.73" shape="427.72,689.36 443.79,716.72"/>
    </edge>
    <edge id="1463536005#0" from="9195240831" to="6234228018" priority="1" type="highway.footway" spreadType="center">
        <lane id="1463536005#0_0" index="0" allow="pedestrian" speed="2.78" length="7.17" width="2.00" shape="419.68,642.35 424.41,647.73"/>
    </edge>
    <edge id="1463536005#1" from="6234228018" to="6234228019" priority="1" type="highway.footway" spreadType="center">