<?xml version="1.0" encoding="UTF-8"?>

<!-- generated on 2026-02-25 00:09:46.457944 by Eclipse SUMO osmWebWizard.py v1_26_0+0000-fa7df22d7f1
<configuration>
    <net-file value="C:\Users\aksha\OneDrive\Desktop\TrafficFlow_Project\2026-02-25-00-09-38\osm.net.xml.gz"/>
    <output-trip-file value="C:\Users\aksha\OneDrive\Desktop\TrafficFlow_Project\2026-02-25-00-09-38\osm.passenger.trips.xml"/>
    <route-file value="C:\Users\aksha\OneDrive\Desktop\TrafficFlow_Project\2026-02-25-00-09-38\osm.passenger.rou.xml"/>
    <prefix value="veh"/>
    <trip-attributes value="departLane=&quot;best&quot;"/>
    <fringe-start-attributes value="departSpeed=&quot;max&quot;"/>
    <vehicle-class value="passenger"/>
    <lanes value="True"/>
    <fringe-factor value="5"/>
    <allow-fringe.min-length value="1000.0"/>
    <edge-permission value="passenger"/>
    <via-edge-types value="highway.motorway,highway.motorway_link,highway.trunk_link,highway.primary_link,highway.secondary_link,highway.tertiary_link"/>
    <min-distance value="300.0"/>
    <min-distance.fringe value="10.0"/>
    <remove-loops value="True"/>
    <insertion-density value="12.0"/>
</configuration>
-->

<routes xmlns:xsi="http://www.w3.org/2001/XMLSchema-instance" xsi:noNamespaceSchemaLocation="http://sumo.dlr.de/xsd/routes_file.xsd">
    <vType id="veh_passenger" vClass="passenger"/>
    <trip id="veh0" depart="0.00" from="502034846#1" to="-482708312#0" departLane="best" type="veh_passenger"/>
    <trip id="veh1" depart="10.70" from="-489789363#1" to="-482708369#0" departLane="best" type="veh_passenger"/>
    <trip id="veh2" depart="21.39" from="-489734628" to="1075635027#2" departLane="best" type="veh_passenger" departSpeed="max"/>
    <trip id="veh3" depart="32.09" from="-489734631" to="502034846#4" departLane="best" type="veh_passenger" departSpeed="max"/>
    <trip id="veh4" depart="42.79" from="-482708314#1" to="489736035" departLane="best" type="veh_passenger"/>
    <trip id="veh5" depart="53.49" from="-482708312#8" to="1103364533" departLane="best" type="veh_passenger"/>
    <trip id="veh6" depart="64.18" from="489789371#1" to="489736039" departLane="best" type="veh_passenger"/>
    <trip id="veh7" depart="74.88" from="-489734626#0" to="502034846#4" departLane="best" type="veh_passenger"/>
    <trip id="veh8" depart="85.58" from="675335735#0" to="1216417435" departLane="best" type="veh_passenger"/>
    <trip id="veh9" depart="96.28" from="336852291#0" to="502034846#2" departLane="best" type="veh_passenger" departSpeed="max"/>
    <trip id="veh10" depart="106.97" from="-138959048#2" to="482708369#0" departLane="best" type="veh_passenger" departSpeed="max"/>
    <trip id="veh11" depart="117.67" from="993540870" to="138959048#2" departLane="best" type="veh_passenger"/>
    <trip id="veh12" depart="128.37" from="-1103359857" to="489734631" departLane="best" type="veh_passenger"/>
    <trip id="veh13" depart="139.07" from="482708312#3" to="331637295#0" departLane="best" type="veh_passenger"/>
    <trip id="veh14" depart="149.76" from="-138959048#2" to="1215820812" departLane="best" type="veh_passenger" departSpeed="max"/>
    <trip id="veh15" depart="160.46" from="1258954094#0" to="-489734627#0" departLane="best" type="veh_passenger" departSpeed="max"/>
    <trip id="veh16" depart="171.16" from="336852291#0" to="-482708369#0" departLane="best" type="veh_passenger" departSpeed="max"/>
    <trip id="veh17" depart="181.86" from="489789363#0" to="138959048#2" departLane="best" type="veh_passenger" departSpeed="max"/>
    <trip id="veh18" depart="192.55" from="-1103364522" to="502034846#4" departLane="best" type="veh_passenger" departSpeed="max"/>
    <trip id="veh19" depart="203.25" from="489789363#0" to="-482708312#7" departLane="best" type="veh_passenger" departSpeed="max"/>
    <trip id="veh20" depart="213.95" from="-482708380" to="1075635027#2" departLane="best" type="veh_passenger" departSpeed="max"/>
    <trip id="veh21" depart="224.65" from="1103359856#1" to="138959048#2" departLane="best" type="veh_passenger"/>
    <trip id="veh22" depart="235.34" from="755788739#0" to="438370027#0" departLane="best" type="veh_passenger" departSpeed="max"/>
    <trip id="veh23" depart="246.04" from="489789367#0" to="-489734629#0" departLane="best" type="veh_passenger"/>
    <trip id="veh24" depart="256.74" from="755788739#4" to="-482708312#0" departLane="best" type="veh_passenger"/>
    <trip id="veh25" depart="267.44" from="-482708369#1" to="1216417435" departLane="best" type="veh_passenger"/>
    <trip id="veh26" depart="278.13" from="-489734629#1" to="502034846#4" departLane="best" type="veh_passenger" departSpeed="max"/>
    <trip id="veh27" depart="288.83" from="755788739#2" to="502034846#4" departLane="best" type="veh_passenger"/>
    <trip id="veh28" depart="299.53" from="755788739#1" to="993540870" departLane="best" type="veh_passenger"/>
    <trip id="veh29" depart="310.23" from="-482708312#5" to="1075635027#2" departLane="best" type="veh_passenger"/>
    <trip id="veh30" depart="320.92" from="755788739#2" to="482708312#1" departLane="best" type="veh_passenger"/>
    <trip id="veh31" depart="331.62" from="336852291#0" to="489734628" departLane="best" type="veh_passenger" departSpeed="max"/>
    <trip id="veh32" depart="342.32" from="336852291#0" to="482708367#0" departLane="best" type="veh_passenger" departSpeed="max"/>
    <trip id="veh33" depart="353.02" from="-993540873" to="482708312#2" departLane="best" type="veh_passenger"/>
    <trip id="veh34" depart="363.71" from="1258954094#2" to="502034846#4" departLane="best" type="veh_passenger"/>
    <trip id="veh35" depart="374.41" from="-482708380" to="489734631" departLane="best" type="veh_passenger" departSpeed="max"/>
    <trip id="veh36" depart="385.11" from="482708312#1" to="1075635027#2" departLane="best" type="veh_passenger"/>
    <trip id="veh37" depart="395.80" from="993540872" to="993540870" departLane="best" type="veh_passenger"/>
    <trip id="veh38" depart="406.50" from="-489734630" to="502034846#4" departLane="best" type="veh_passenger"/>
    <trip id="veh39" depart="417.20" from="502026808" to="502026808" departLane="best" type="veh_passenger" departSpeed="max"/>
    <trip id="veh40" depart="427.90" from="-489789367#2" to="-482708369#1" departLane="best" type="veh_passenger"/>
    <trip id="veh41" depart="438.59" from="336852291#0" to="755788739#5" departLane="best" type="veh_passenger" departSpeed="max"/>
    <trip id="veh42" depart="449.29" from="489789368#0" to="1075635027#2" departLane="best" type="veh_passenger"/>
    <trip id="veh43" depart="459.99" from="482708312#0" to="502034846#4" departLane="best" type="veh_passenger" departSpeed="max"/>
    <trip id="veh44" depart="470.69" from="-438370027#0" to="-482708312#4" departLane="best" type="veh_passenger"/>
    <trip id="veh45" depart="481.38" from="-138959048#2" to="336852291#2" departLane="best" type="veh_passenger" departSpeed="max"/>
    <trip id="veh46" depart="492.08" from="1216415336" to="502034846#3" departLane="best" type="veh_passenger"/>
    <trip id="veh47" depart="502.78" from="489789369" to="482708312#2" departLane="best" type="veh_passenger"/>
    <trip id="veh48" depart="513.48" from="-482708312#5" to="502034846#4" departLane="best" type="veh_passenger"/>
    <trip id="veh49" depart="524.17" from="-489736039" to="502034846#4" departLane="best" type="veh_passenger" departSpeed="max"/>
    <trip id="veh50" depart="534.87" from="489789367#1" to="-993540870" departLane="best" type="veh_passenger"/>
    <trip id="veh51" depart="545.57" from="502026808" to="502026808" departLane="best" type="veh_passenger" departSpeed="max"/>
    <trip id="veh52" depart="556.27" from="755788739#4" to="331637295#0" departLane="best" type="veh_passenger"/>
    <trip id="veh53" depart="566.96" from="755788739#0" to="-482708312#4" departLane="best" type="veh_passenger" departSpeed="max"/>
    <trip id="veh54" depart="577.66" from="755788739#1" to="-675335735#1" departLane="best" type="veh_passenger"/>
    <trip id="veh55" depart="588.36" from="-138959048#2" to="1215820812" departLane="best" type="veh_passenger" departSpeed="max"/>
    <trip id="veh56" depart="599.06" from="489734626#0" to="1075635027#2" departLane="best" type="veh_passenger"/>
    <trip id="veh57" depart="609.75" from="336852291#0" to="138959048#1" departLane="best" type="veh_passenger" departSpeed="max"/>
    <trip id="veh58" depart="620.45" from="-1080439104" to="502034846#4" departLane="best" type="veh_passenger"/>
    <trip id="veh59" depart="631.15" from="482708369#0" to="1075635027#2" departLane="best" type="veh_passenger"/>
    <trip id="veh60" depart="641.85" from="-675335735#0" to="1075635027#2" departLane="best" type="veh_passenger"/>
    <trip id="veh61" depart="652.54" from="755788739#0" to="489734628" departLane="best" type="veh_passenger" departSpeed="max"/>
    <trip id="veh62" depart="663.24" from="-1080439104" to="1075635027#2" departLane="best" type="veh_passenger"/>
    <trip id="veh63" depart="673.94" from="482708312#0" to="1258954094#1" departLane="best" type="veh_passenger" departSpeed="max"/>
    <trip id="veh64" depart="684.64" from="-482708380" to="489734629#1" departLane="best" type="veh_passenger" departSpeed="max"/>
    <trip id="veh65" depart="695.33" from="482708312#0" to="755788739#5" departLane="best" type="veh_passenger" departSpeed="max"/>
    <trip id="veh66" depart="706.03" from="336852291#0" to="675335735#0" departLane="best" type="veh_passenger" departSpeed="max"/>
    <trip id="veh67" depart="716.73" from="489789363#0" to="138959048#2" departLane="best" type="veh_passenger" departSpeed="max"/>
    <trip id="veh68" depart="727.43" from="-489734631" to="1075635027#2" departLane="best" type="veh_passenger" departSpeed="max"/>
    <trip id="veh69" depart="738.12" from="-993540873" to="502034846#3" departLane="best" type="veh_passenger"/>
    <trip id="veh70" depart="748.82" from="336852291#0" to="489734629#1" departLane="best" type="veh_passenger" departSpeed="max"/>
    <trip id="veh71" depart="759.52" from="-438370027#0" to="1216417435" departLane="best" type="veh_passenger"/>
    <trip id="veh72" depart="770.21" from="993540872" to="1103364522" departLane="best" type="veh_passenger"/>
    <trip id="veh73" depart="780.91" from="438370027#1" to="489736039" departLane="best" type="veh_passenger"/>
    <trip id="veh74" depart="791.61" from="755788739#0" to="-489789363#0" departLane="best" type="veh_passenger" departSpeed="max"/>
    <trip id="veh75" depart="802.31" from="-482708314#0" to="482708312#8" departLane="best" type="veh_passenger"/>
    <trip id="veh76" depart="813.00" from="-138959048#0" to="489736039" departLane="best" type="veh_passenger"/>
    <trip id="veh77" depart="823.70" from="489789363#1" to="1103364522" departLane="best" type="veh_passenger"/>
    <trip id="veh78" depart="834.40" from="1258954094#0" to="1103364522" departLane="best" type="veh_passenger" departSpeed="max"/>
    <trip id="veh79" depart="845.10" from="138959009" to="138959009" departLane="best" type="veh_passenger" departSpeed="max"/>
    <trip id="veh80" depart="855.79" from="489789368#5" to="-482708312#0" departLane="best" type="veh_passenger"/>
    <trip id="veh81" depart="866.49" from="-1103359856#1" to="502034846#4" departLane="best" type="veh_passenger"/>
    <trip id="veh82" depart="877.19" from="482708312#6" to="1075635027#2" departLane="best" type="veh_passenger"/>
    <trip id="veh83" depart="887.89" from="-482708380" to="-482708312#5" departLane="best" type="veh_passenger" departSpeed="max"/>
    <trip id="veh84" depart="898.58" from="755788739#3" to="138959048#2" departLane="best" type="veh_passenger"/>
    <trip id="veh85" depart="909.28" from="-482708380" to="-489789367#2" departLane="best" type="veh_passenger" departSpeed="max"/>
    <trip id="veh86" depart="919.98" from="138959048#0" to="1075635027#2" departLane="best" type="veh_passenger"/>
    <trip id="veh87" depart="930.68" from="489789363#0" to="482708312#8" departLane="best" type="veh_passenger" departSpeed="max"/>
    <trip id="veh88" depart="941.37" from="1258954094#2" to="1216417435" departLane="best" type="veh_passenger"/>
    <trip id="veh89" depart="952.07" from="755788739#5" to="1075635027#2" departLane="best" type="veh_passenger"/>
    <trip id="veh90" depart="962.77" from="336852291#1" to="482708314#0" departLane="best" type="veh_passenger"/>
    <trip id="veh91" depart="973.47" from="489734627#0" to="502034846#4" departLane="best" type="veh_passenger" departSpeed="max"/>
    <trip id="veh92" depart="984.16" from="-482708380" to="-489789363#0" departLane="best" type="veh_passenger" departSpeed="max"/>
    <trip id="veh93" depart="994.86" from="-482708314#2" to="-331637295#0" departLane="best" type="veh_passenger"/>
    <trip id="veh94" depart="1005.56" from="-1080439104" to="1216417435" departLane="best" type="veh_passenger"/>
    <trip id="veh95" depart="1016.26" from="336852291#0" to="1075635027#2" departLane="best" type="veh_passenger" departSpeed="max"/>
    <trip id="veh96" depart="1026.95" from="482708314#0" to="1216417435" departLane="best" type="veh_passenger"/>
    <trip id="veh97" depart="1037.65" from="482708312#5" to="502034846#4" departLane="best" type="veh_passenger"/>
    <trip id="veh98" depart="1048.35" from="482708312#0" to="502034846#4" departLane="best" type="veh_passenger" departSpeed="max"/>
    <trip id="veh99" depart="1059.05" from="438370027#0" to="502034846#3" departLane="best" type="veh_passenger"/>
    <trip id="veh100" depart="1069.74" from="-482708312#8" to="1075635027#2" departLane="best" type="veh_passenger"/>
    <trip id="veh101" depart="1080.44" from="755788739#0" to="993540872" departLane="best" type="veh_passenger" departSpeed="max"/>
    <trip id="veh102" depart="1091.14" from="1216415336" to="-482708312#0" departLane="best" type="veh_passenger"/>
    <trip id="veh103" depart="1101.84" from="489789367#2" to="336852291#2" departLane="best" type="veh_passenger"/>
    <trip id="veh104" depart="1112.53" from="1103359856#1" to="489734629#1" departLane="best" type="veh_passenger"/>
    <trip id="veh105" depart="1123.23" from="755788739#5" to="502034846#4" departLane="best" type="veh_passenger"/>
    <trip id="veh106" depart="1133.93" from="755788739#0" to="138959048#0" departLane="best" type="veh_passenger" departSpeed="max"/>
    <trip id="veh107" depart="1144.62" from="502026808" to="502026808" departLane="best" type="veh_passenger" departSpeed="max"/>
    <trip id="veh108" depart="1155.32" from="-993540872" to="502034846#4" departLane="best" type="veh_passenger"/>
    <trip id="veh109" depart="1166.02" from="-489734631" to="1075635027#2" departLane="best" type="veh_passenger" departSpeed="max"/>
    <trip id="veh110" depart="1176.72" from="502026808" to="502026808" departLane="best" type="veh_passenger" departSpeed="max"/>
    <trip id="veh111" depart="1187.41" from="-489789368#1" to="1075635027#2" departLane="best" type="veh_passenger"/>
    <trip id="veh112" depart="1198.11" from="755788739#0" to="993540872" departLane="best" type="veh_passenger" departSpeed="max"/>
    <trip id="veh113" depart="1208.81" from="-482708312#3" to="138959048#2" departLane="best" type="veh_passenger"/>
    <trip id="veh114" depart="1219.51" from="-482708314#1" to="-331637295#1" departLane="best" type="veh_passenger"/>
    <trip id="veh115" depart="1230.20" from="-489734629#0" to="502034846#4" departLane="best" type="veh_passenger"/>
    <trip id="veh116" depart="1240.90" from="-482708312#2" to="1216417435" departLane="best" type="veh_passenger"/>
    <trip id="veh117" depart="1251.60" from="-489789363#2" to="482708312#3" departLane="best" type="veh_passenger" departSpeed="max"/>
    <trip id="veh118" depart="1262.30" from="993540870" to="1075635027#2" departLane="best" type="veh_passenger"/>
    <trip id="veh119" depart="1272.99" from="-1103364532#1" to="482708312#8" departLane="best" type="veh_passenger" departSpeed="max"/>
    <trip id="veh120" depart="1283.69" from="336852291#0" to="1103364522" departLane="best" type="veh_passenger" departSpeed="max"/>
    <trip id="veh121" depart="1294.39" from="438370027#0" to="1075635027#2" departLane="best" type="veh_passenger"/>
    <trip id="veh122" depart="1305.09" from="1103359857" to="482708312#1" departLane="best" type="veh_passenger"/>
    <trip id="veh123" depart="1315.78" from="-482708314#2" to="-482708312#8" departLane="best" type="veh_passenger"/>
    <trip id="veh124" depart="1326.48" from="755788739#1" to="-482708314#2" departLane="best" type="veh_passenger"/>
    <trip id="veh125" depart="1337.18" from="-1103359857" to="331637295#0" departLane="best" type="veh_passenger"/>
    <trip id="veh126" depart="1347.88" from="489789368#1" to="502034846#4" departLane="best" type="veh_passenger"/>
    <trip id="veh127" depart="1358.57" from="138959048#0" to="502034846#4" departLane="best" type="veh_passenger"/>
    <trip id="veh128" depart="1369.27" from="489789368#2" to="502034846#3" departLane="best" type="veh_passenger"/>
    <trip id="veh129" depart="1379.97" from="-482708312#1" to="502034846#4" departLane="best" type="veh_passenger"/>
    <trip id="veh130" depart="1390.67" from="-438370027#0" to="1216417435" departLane="best" type="veh_passenger"/>
    <trip id="veh131" depart="1401.36" from="482708312#0" to="489736035" departLane="best" type="veh_passenger" departSpeed="max"/>
    <trip id="veh132" depart="1412.06" from="-993540872" to="-482708312#0" departLane="best" type="veh_passenger"/>
    <trip id="veh133" depart="1422.76" from="336852291#0" to="-1103364533" departLane="best" type="veh_passenger" departSpeed="max"/>
    <trip id="veh134" depart="1433.46" from="-482708380" to="-489789363#1" departLane="best" type="veh_passenger" departSpeed="max"/>
    <trip id="veh135" depart="1444.15" from="489734627#0" to="138959048#2" departLane="best" type="veh_passenger" departSpeed="max"/>
    <trip id="veh136" depart="1454.85" from="1258954094#2" to="1216417435" departLane="best" type="veh_passenger"/>
    <trip id="veh137" depart="1465.55" from="502034846#3" to="-138959048#2" departLane="best" type="veh_passenger"/>
    <trip id="veh138" depart="1476.25" from="336852291#0" to="-482708312#0" departLane="best" type="veh_passenger" departSpeed="max"/>
    <trip id="veh139" depart="1486.94" from="438370027#1" to="489736039" departLane="best" type="veh_passenger"/>
    <trip id="veh140" depart="1497.64" from="-489736039" to="1216417435" departLane="best" type="veh_passenger" departSpeed="max"/>
    <trip id="veh141" depart="1508.34" from="-993540872" to="-482708312#0" departLane="best" type="veh_passenger"/>
    <trip id="veh142" depart="1519.04" from="-489789368#0" to="-482708369#0" departLane="best" type="veh_passenger"/>
    <trip id="veh143" depart="1529.73" from="755788739#0" to="-138959048#1" departLane="best" type="veh_passenger" departSpeed="max"/>
    <trip id="veh144" depart="1540.43" from="489789368#5" to="-482708312#0" departLane="best" type="veh_passenger"/>
    <trip id="veh145" depart="1551.13" from="336852291#0" to="336852291#3" departLane="best" type="veh_passenger" departSpeed="max"/>
    <trip id="veh146" depart="1561.82" from="-489789363#2" to="489734628" departLane="best" type="veh_passenger" departSpeed="max"/>
    <trip id="veh147" depart="1572.52" from="336852291#0" to="1103364522" departLane="best" type="veh_passenger" departSpeed="max"/>
    <trip id="veh148" depart="1583.22" from="489789368#0" to="482708314#1" departLane="best" type="veh_passenger"/>
    <trip id="veh149" depart="1593.92" from="755788739#0" to="489789368#4" departLane="best" type="veh_passenger" departSpeed="max"/>
    <trip id="veh150" depart="1604.61" from="482708314#0" to="1075635027#2" departLane="best" type="veh_passenger"/>
    <trip id="veh151" depart="1615.31" from="-489789371#1" to="-482708314#2" departLane="best" type="veh_passenger"/>
    <trip id="veh152" depart="1626.01" from="-489789367#2" to="489734631" departLane="best" type="veh_passenger"/>
    <trip id="veh153" depart="1636.71" from="-482708312#6" to="482708314#2" departLane="best" type="veh_passenger"/>
    <trip id="veh154" depart="1647.40" from="-489789371#0" to="482708312#6" departLane="best" type="veh_passenger"/>
    <trip id="veh155" depart="1658.10" from="-1103359856#1" to="1075635027#2" departLane="best" type="veh_passenger"/>
    <trip id="veh156" depart="1668.80" from="-138959048#2" to="-1103364533" departLane="best" type="veh_passenger" departSpeed="max"/>
    <trip id="veh157" depart="1679.50" from="755788739#0" to="-482708312#0" departLane="best" type="veh_passenger" departSpeed="max"/>
    <trip id="veh158" depart="1690.19" from="336852291#0" to="138959048#2" departLane="best" type="veh_passenger" departSpeed="max"/>
    <trip id="veh159" depart="1700.89" from="-489789371#0" to="1075635027#2" departLane="best" type="veh_passenger"/>
    <trip id="veh160" depart="1711.59" from="-138959048#2" to="138959048#0" departLane="best" type="veh_passenger" departSpeed="max"/>
    <trip id="veh161" depart="1722.29" from="336852291#0" to="489736036" departLane="best" type="veh_passenger" departSpeed="max"/>
    <trip id="veh162" depart="1732.98" from="1103364533" to="502034846#4" departLane="best" type="veh_passenger"/>
    <trip id="veh163" depart="1743.68" from="-489736036" to="1216417435" departLane="best" type="veh_passenger" departSpeed="max"/>
    <trip id="veh164" depart="1754.38" from="1258954094#0" to="1216417435" departLane="best" type="veh_passenger" departSpeed="max"/>
    <trip id="veh165" depart="1765.08" from="502034846#1" to="1216417435" departLane="best" type="veh_passenger"/>
    <trip id="veh166" depart="1775.77" from="-138959048#1" to="502034846#2" departLane="best" type="veh_passenger"/>
    <trip id="veh167" depart="1786.47" from="-489789363#2" to="489734631" departLane="best" type="veh_passenger" departSpeed="max"/>
    <trip id="veh168" depart="1797.17" from="1258954094#0" to="-489734627#0" departLane="best" type="veh_passenger" departSpeed="max"/>
    <trip id="veh169" depart="1807.87" from="1103359857" to="138959048#2" departLane="best" type="veh_passenger"/>
    <trip id="veh170" depart="1818.56" from="755788739#2" to="489734629#1" departLane="best" type="veh_passenger"/>
    <trip id="veh171" depart="1829.26" from="-489789369" to="482708312#5" departLane="best" type="veh_passenger"/>
    <trip id="veh172" depart="1839.96" from="482708312#4" to="138959048#2" departLane="best" type="veh_passenger"/>
    <trip id="veh173" depart="1850.66" from="-138959048#0" to="489736039" departLane="best" type="veh_passenger"/>
    <trip id="veh174" depart="1861.35" from="489789363#0" to="-482708312#8" departLane="best" type="veh_passenger" departSpeed="max"/>
    <trip id="veh175" depart="1872.05" from="-489789368#1" to="-489734626#0" departLane="best" type="veh_passenger"/>
    <trip id="veh176" depart="1882.75" from="489789367#1" to="-489734626#1" departLane="best" type="veh_passenger"/>
    <trip id="veh177" depart="1893.45" from="489734627#0" to="1216417435" departLane="best" type="veh_passenger" departSpeed="max"/>
    <trip id="veh178" depart="1904.14" from="755788739#0" to="755788739#4" departLane="best" type="veh_passenger" departSpeed="max"/>
    <trip id="veh179" depart="1914.84" from="-489789368#2" to="138959048#2" departLane="best" type="veh_passenger"/>
    <trip id="veh180" depart="1925.54" from="1103359856#1" to="502034846#4" departLane="best" type="veh_passenger"/>
    <trip id="veh181" depart="1936.23" from="-489734628" to="1216417435" departLane="best" type="veh_passenger" departSpeed="max"/>
    <trip id="veh182" depart="1946.93" from="755788739#0" to="489789371#0" departLane="best" type="veh_passenger" departSpeed="max"/>
    <trip id="veh183" depart="1957.63" from="-482708312#1" to="1075635027#2" departLane="best" type="veh_passenger"/>
    <trip id="veh184" depart="1968.33" from="489789368#4" to="489734629#1" departLane="best" type="veh_passenger"/>
    <trip id="veh185" depart="1979.02" from="489734626#0" to="138959048#2" departLane="best" type="veh_passenger"/>
    <trip id="veh186" depart="1989.72" from="-138959048#2" to="1075635027#2" departLane="best" type="veh_passenger" departSpeed="max"/>
    <trip id="veh187" depart="2000.42" from="-1103364522" to="138959048#2" departLane="best" type="veh_passenger" departSpeed="max"/>
    <trip id="veh188" depart="2011.12" from="138959009" to="138959009" departLane="best" type="veh_passenger" departSpeed="max"/>
    <trip id="veh189" depart="2021.81" from="-482708314#2" to="489736039" departLane="best" type="veh_passenger"/>
    <trip id="veh190" depart="2032.51" from="-1103364532#1" to="502034846#4" departLane="best" type="veh_passenger" departSpeed="max"/>
    <trip id="veh191" depart="2043.21" from="1258954094#0" to="755788739#5" departLane="best" type="veh_passenger" departSpeed="max"/>
    <trip id="veh192" depart="2053.91" from="-489789363#2" to="489736039" departLane="best" type="veh_passenger" departSpeed="max"/>
    <trip id="veh193" depart="2064.60" from="-138959048#2" to="1103364532#1" departLane="best" type="veh_passenger" departSpeed="max"/>
    <trip id="veh194" depart="2075.30" from="489734626#0" to="-331637295#1" departLane="best" type="veh_passenger"/>
    <trip id="veh195" depart="2086.00" from="755788739#4" to="502034846#4" departLane="best" type="veh_passenger"/>
    <trip id="veh196" depart="2096.70" from="138959048#1" to="482708312#8" departLane="best" type="veh_passenger"/>
    <trip id="veh197" depart="2107.39" from="-489789367#2" to="489736039" departLane="best" type="veh_passenger"/>
    <trip id="veh198" depart="2118.09" from="331637295#0" to="138959048#2" departLane="best" type="veh_passenger"/>
    <trip id="veh199" depart="2128.79" from="502034846#2" to="1216417435" departLane="best" type="veh_passenger"/>
    <trip id="veh200" depart="2139.49" from="-489789363#2" to="-138959048#0" departLane="best" type="veh_passenger" departSpeed="max"/>
    <trip id="veh201" depart="2150.18" from="755788739#0" to="482708380" departLane="best" type="veh_passenger" departSpeed="max"/>
    <trip id="veh202" depart="2160.88" from="993540872" to="489734631" departLane="best" type="veh_passenger"/>
    <trip id="veh203" depart="2171.58" from="1103359856#0" to="502034846#3" departLane="best" type="veh_passenger"/>
    <trip id="veh204" depart="2182.28" from="-1103364533" to="-482708312#6" departLane="best" type="veh_passenger"/>
    <trip id="veh205" depart="2192.97" from="-489789363#2" to="502034846#4" departLane="best" type="veh_passenger" departSpeed="max"/>
    <trip id="veh206" depart="2203.67" from="1258954094#0" to="-489734627#0" departLane="best" type="veh_passenger" departSpeed="max"/>
    <trip id="veh207" depart="2214.37" from="755788739#0" to="-482708369#0" departLane="best" type="veh_passenger" departSpeed="max"/>
    <trip id="veh208" depart="2225.07" from="438370027#1" to="489736039" departLane="best" type="veh_passenger"/>
    <trip id="veh209" depart="2235.76" from="482708312#4" to="1075635027#2" departLane="best" type="veh_passenger"/>
    <trip id="veh210" depart="2246.46" from="-482708380" to="482708312#8" departLane="best" type="veh_passenger" departSpeed="max"/>
    <trip id="veh211" depart="2257.16" from="755788739#3" to="-482708312#8" departLane="best" type="veh_passenger"/>
    <trip id="veh212" depart="2267.86" from="331637295#1" to="1075635027#2" departLane="best" type="veh_passenger"/>
    <trip id="veh213" depart="2278.55" from="489734626#0" to="489736039" departLane="best" type="veh_passenger"/>
    <trip id="veh214" depart="2289.25" from="138959048#2" to="-489734630" departLane="best" type="veh_passenger"/>
    <trip id="veh215" depart="2299.95" from="-482708380" to="138959048#0" departLane="best" type="veh_passenger" departSpeed="max"/>
    <trip id="veh216" depart="2310.64" from="1215820811" to="1216417435" departLane="best" type="veh_passenger"/>
    <trip id="veh217" depart="2321.34" from="336852291#0" to="138959048#2" departLane="best" type="veh_passenger" departSpeed="max"/>
    <trip id="veh218" depart="2332.04" from="-489736039" to="482708314#1" departLane="best" type="veh_passenger" departSpeed="max"/>
    <trip id="veh219" depart="2342.74" from="489734627#0" to="1075635027#2" departLane="best" type="veh_passenger" departSpeed="max"/>
    <trip id="veh220" depart="2353.43" from="755788739#4" to="482708312#2" departLane="best" type="veh_passenger"/>
    <trip id="veh221" depart="2364.13" from="489789363#1" to="489736039" departLane="best" type="veh_passenger"/>
    <trip id="veh222" depart="2374.83" from="336852291#0" to="-489734627#0" departLane="best" type="veh_passenger" departSpeed="max"/>
    <trip id="veh223" depart="2385.53" from="489789371#0" to="-482708367#0" departLane="best" type="veh_passenger"/>
    <trip id="veh224" depart="2396.22" from="755788739#0" to="-482708312#2" departLane="best" type="veh_passenger" departSpeed="max"/>
    <trip id="veh225" depart="2406.92" from="-1103364522" to="1075635027#2" departLane="best" type="veh_passenger" departSpeed="max"/>
    <trip id="veh226" depart="2417.62" from="-482708314#1" to="502034846#4" departLane="best" type="veh_passenger"/>
    <trip id="veh227" depart="2428.32" from="-489789363#1" to="1103364522" departLane="best" type="veh_passenger"/>
    <trip id="veh228" depart="2439.01" from="489789363#0" to="489734631" departLane="best" type="veh_passenger" departSpeed="max"/>
    <trip id="veh229" depart="2449.71" from="336852291#0" to="-489734629#0" departLane="best" type="veh_passenger" departSpeed="max"/>
    <trip id="veh230" depart="2460.41" from="-482708380" to="489734630" departLane="best" type="veh_passenger" departSpeed="max"/>
    <trip id="veh231" depart="2471.11" from="755788739#0" to="489789363#2" departLane="best" type="veh_passenger" departSpeed="max"/>